Version 4
SHEET 1 880 680
WIRE 48 -144 32 -144
WIRE 128 -48 16 -48
WIRE 48 48 48 -144
WIRE -736 64 -752 64
WIRE -640 64 -672 64
WIRE -560 64 -640 64
WIRE -416 64 -560 64
WIRE -208 64 -416 64
WIRE -64 64 -64 -48
WIRE -64 64 -128 64
WIRE -48 64 -64 64
WIRE 128 80 128 -48
WIRE 176 80 128 80
WIRE 272 80 256 80
WIRE -48 96 -96 96
WIRE 176 112 128 112
WIRE 272 112 256 112
WIRE -256 128 -352 128
WIRE -208 128 -256 128
WIRE -64 128 -128 128
WIRE -48 128 -64 128
WIRE -256 160 -256 128
WIRE 272 176 176 176
WIRE -96 192 -96 96
WIRE 176 192 160 176
WIRE 176 192 176 176
WIRE 176 192 -96 192
WIRE 272 208 224 208
WIRE -352 224 -352 208
WIRE -64 272 -64 128
WIRE 128 272 128 112
WIRE 128 272 16 272
WIRE -640 288 -640 144
WIRE -560 288 -560 128
WIRE -416 288 -416 128
WIRE -256 288 -256 240
WIRE 48 304 48 144
WIRE 224 304 224 208
WIRE 0 0 0 0
FLAG -640 288 0
FLAG -256 288 0
FLAG 224 304 0
FLAG 48 304 0
FLAG 32 -144 +5V
IOPIN 32 -144 In
FLAG -752 64 INPUT_50_Ohm
IOPIN -752 64 In
FLAG 160 176 +2V
FLAG -560 288 0
FLAG -416 288 0
FLAG -352 288 0
SYMBOL AutoGenerated\\AD8138 64 96 R0
WINDOW 3 -14 102 Top 2
SYMATTR InstName U1
SYMBOL AutoGenerated\\AD9226 400 176 R0
SYMATTR InstName X1
SYMBOL res 272 64 R90
WINDOW 0 0 83 VBottom 2
WINDOW 3 -28 41 VTop 2
SYMATTR InstName R9
SYMATTR Value 10
SYMBOL res 272 96 R90
WINDOW 0 50 90 VBottom 2
WINDOW 3 21 44 VTop 2
SYMATTR InstName R11
SYMATTR Value 10
SYMBOL res 32 -64 R90
WINDOW 0 0 83 VBottom 2
WINDOW 3 -28 21 VTop 2
SYMATTR InstName R2
SYMATTR Value 2200
SYMBOL res 32 256 R90
WINDOW 0 0 83 VBottom 2
WINDOW 3 -28 21 VTop 2
SYMATTR InstName R14
SYMATTR Value 2200
SYMBOL res -112 48 R90
WINDOW 0 0 83 VBottom 2
WINDOW 3 -28 21 VTop 2
SYMATTR InstName R8
SYMATTR Value 390
SYMBOL res -112 112 R90
WINDOW 0 0 83 VBottom 2
WINDOW 3 -28 21 VTop 2
SYMATTR InstName R13
SYMATTR Value 390
SYMBOL res -272 144 R0
SYMATTR InstName R16
SYMATTR Value 56
SYMBOL res -656 48 R0
SYMATTR InstName R6
SYMATTR Value 56
SYMBOL cap -672 48 R90
WINDOW 0 0 32 VBottom 2
WINDOW 3 32 32 VTop 2
SYMATTR InstName C1
SYMATTR Value 0.1µ
SYMBOL cap -368 224 R0
SYMATTR InstName C2
SYMATTR Value 0.1µ
SYMBOL diode -576 64 R0
WINDOW 3 -19 93 Left 2
SYMATTR InstName D1
SYMATTR Value 1N4148
SYMBOL diode -400 128 R180
WINDOW 0 24 64 Left 2
WINDOW 3 -22 -33 Left 2
SYMATTR InstName D2
SYMATTR Value 1N4148
SYMBOL res -368 112 R0
SYMATTR InstName R1
SYMATTR Value 51
