Version 4
SHEET 1 880 680
WIRE 48 -144 32 -144
WIRE 128 -48 16 -48
WIRE 48 48 48 -144
WIRE -640 64 -704 64
WIRE -560 64 -640 64
WIRE -480 64 -560 64
WIRE -368 64 -400 64
WIRE -208 64 -368 64
WIRE -64 64 -64 -48
WIRE -64 64 -128 64
WIRE -48 64 -64 64
WIRE 128 80 128 -48
WIRE 176 80 128 80
WIRE 272 80 256 80
WIRE -48 96 -96 96
WIRE 176 112 128 112
WIRE 272 112 256 112
WIRE -208 128 -256 128
WIRE -64 128 -128 128
WIRE -48 128 -64 128
WIRE -368 160 -368 64
WIRE -256 160 -256 128
WIRE 272 176 176 176
WIRE -96 192 -96 96
WIRE 176 192 160 176
WIRE 176 192 176 176
WIRE 176 192 -96 192
WIRE 272 208 224 208
WIRE -64 272 -64 128
WIRE 128 272 128 112
WIRE 128 272 16 272
WIRE 48 304 48 144
WIRE 224 304 224 208
FLAG -640 144 0
FLAG -560 144 0
FLAG -368 240 0
FLAG -256 240 0
FLAG 224 304 0
FLAG 48 304 0
FLAG 32 -144 +5V
IOPIN 32 -144 In
FLAG -704 64 INPUT_50_Ohm
IOPIN -704 64 In
FLAG 160 176 +2V
SYMBOL AutoGenerated\\AD8138 64 96 R0
WINDOW 3 -14 102 Top 2
SYMATTR InstName U1
SYMBOL AutoGenerated\\AD9226 400 176 R0
SYMATTR InstName X1
SYMBOL res 272 64 R90
WINDOW 0 0 83 VBottom 2
WINDOW 3 -28 41 VTop 2
SYMATTR InstName R9
SYMATTR Value 10
SYMBOL res 272 96 R90
WINDOW 0 50 90 VBottom 2
WINDOW 3 21 44 VTop 2
SYMATTR InstName R11
SYMATTR Value 10
SYMBOL res 32 -64 R90
WINDOW 0 0 83 VBottom 2
WINDOW 3 -28 21 VTop 2
SYMATTR InstName R2
SYMATTR Value 200
SYMBOL res 32 256 R90
WINDOW 0 0 83 VBottom 2
WINDOW 3 -28 21 VTop 2
SYMATTR InstName R14
SYMATTR Value 200
SYMBOL res -112 48 R90
WINDOW 0 0 83 VBottom 2
WINDOW 3 -28 21 VTop 2
SYMATTR InstName R8
SYMATTR Value 200
SYMBOL res -112 112 R90
WINDOW 0 0 83 VBottom 2
WINDOW 3 -28 21 VTop 2
SYMATTR InstName R13
SYMATTR Value 200
SYMBOL res -272 144 R0
SYMATTR InstName R16
SYMATTR Value 51
SYMBOL res -384 144 R0
SYMATTR InstName R3
SYMATTR Value 62
SYMBOL res -576 48 R0
SYMATTR InstName R7
SYMATTR Value 3000
SYMBOL res -656 48 R0
SYMATTR InstName R6
SYMATTR Value 75
SYMBOL res -384 48 R90
WINDOW 0 0 83 VBottom 2
WINDOW 3 -28 21 VTop 2
SYMATTR InstName R5
SYMATTR Value 200
